data/matacdc_scripts/case5_acdc_acpart.m
function [baseMVA, bus, gen, branch] = case5_stagg
%case 5 nodes    Power flow data for 5 bus, 2 generator case.
%   Please see 'help caseformat' for details on the case file format.
%
%   case file can be used together with dc case files "case5_stagg_....m"
%
%   Network data from ...
%   G.W. Stagg, A.H. El-Abiad, "Computer methods in power system analysis",
%   McGraw-Hill, 1968.
%
%   MATPOWER case file data provided by Jef Beerten.

%% MATPOWER Case Format : Version 1
%%-----  Power Flow Data  -----%%
%% system MVA base
baseMVA = 100;

%% bus data
%	bus_i	type	Pd	Qd	Gs	Bs	area	Vm      Va	baseKV	zone	Vmax	Vmin
bus = [
	1       3       0	0	0   0   1       1.06	0	345     1       1.1     0.9;
	2       2       20	10	0   0   1       1       0	345     1       1.1     0.9;
	3       1       45	15	0   0   1       1       0	345     1       1.1     0.9;
	4       1       40	5	0   0   1       1       0	345     1       1.1     0.9;
	5       1       60	10	0   0   1       1       0	345     1       1.1     0.9;
];

%% generator data
%	bus	Pg      Qg	Qmax	Qmin	Vg	mBase       status	Pmax	Pmin
gen = [
	1	0       0	500      -500    1.06	100       1       250     10;
  	2	40      0	300      -300    1      100       1       300     10;
];

%% branch data
%	fbus	tbus	r	x	b	rateA	rateB	rateC	ratio	angle	status
branch = [
    1   2   0.02    0.06    0.06    100   100   100     0       0       1;
    1   3   0.08    0.24    0.05    100   100   100     0       0       1;
    2   3   0.06    0.18    0.04    100   100   100     0       0       1;
    2   4   0.06    0.18    0.04    100   100   100     0       0       1;
    2   5   0.04    0.12    0.03    100   100   100     0       0       1;
    3   4   0.01    0.03    0.02    100   100   100     0       0       1;
    4   5   0.08    0.24    0.05    100   100   100     0       0       1;
];

return;
